feeders/1_SE001_1/012_cargasBT_1_1.dss
New Load.BT_101453_M1 bus1=UC101453.1.4 phases=1 conn=Wye model=2 kv=0.219393102 kw=0.186355 pf=0.92 daily=RE3_DU status=variable vmaxpu=1.5 vminpu=0.92
New Load.BT_101453_M2 bus1=UC101453.1.4 phases=1 conn=Wye model=3 kv=0.219393102 kw=0.186355 pf=0.92 daily=RE3_DU status=variable vmaxpu=1.5 vminpu=0.92
New Load.BT_101460_M1 bus1=UC101460.1.4 phases=1 conn=Wye model=2 kv=0.219393102 kw=0.1541895 pf=0.92 daily=RE6_DU status=variable vmaxpu=1.5 vminpu=0.92
New Load.BT_101460_M2 bus1=UC101460.1.4 phases=1 conn=Wye model=3 kv=0.219393102 kw=0.1541895 pf=0.92 daily=RE6_DU status=variable vmaxpu=1.5 vminpu=0.92
New Load.BT_103753_M1 bus1=UC103753.2.4 phases=1 conn=Wye model=2 kv=0.219393102 kw=0.3025635 pf=0.92 daily=RE5_DU status=variable vmaxpu=1.5 vminpu=0.92
New Load.BT_103753_M2 bus1=UC103753.2.4 phases=1 conn=Wye model=3 kv=0.219393102 kw=0.3025635 pf=0.92 daily=RE5_DU status=variable vmaxpu=1.5 vminpu=0.92
New Load.BT_103754_M1 bus1=UC103754.1.2.3.4 phases=3 conn=Delta model=2 kv=0.38 kw=1.157285 pf=0.92 daily=RU2_DU status=variable vmaxpu=1.5 vminpu=0.92
New Load.BT_103754_M2 bus1=UC103754.1.2.3.4 phases=3 conn=Delta model=3 kv=0.38 kw=1.157285 pf=0.92 daily=RU2_DU status=variable vmaxpu=1.5 vminpu=0.92
New Load.BT_103755_M1 bus1=UC103755.1.2.3.4 phases=3 conn=Delta model=2 kv=0.38 kw=0.222238 pf=0.92 daily=RE4_DU status=variable vmaxpu=1.5 vminpu=0.92
New Load.BT_103755_M2 bus1=UC103755.1.2.3.4 phases=3 conn=Delta model=3 kv=0.38 kw=0.222238 pf=0.92 daily=RE4_DU status=variable vmaxpu=1.5 vminpu=0.92
New Load.BT_103757_M1 bus1=UC103757.1.2.3.4 phases=3 conn=Delta model=2 kv=0.38 kw=0.465048 pf=0.92 daily=RE3_DU status=variable vmaxpu=1.5 vminpu=0.92
New Load.BT_103757_M2 bus1=UC103757.1.2.3.4 phases=3 conn=Delta model=3 kv=0.38 kw=0.465048 pf=0.92 daily=RE3_DU status=variable vmaxpu=1.5 vminpu=0.92
New Load.BT_103758_M1 bus1=UC103758.1.2.3.4 phases=3 conn=Delta model=2 kv=0.38 kw=0.1237885 pf=0.92 daily=CO5_DU status=variable vmaxpu=1.5 vminpu=0.92
New Load.BT_103758_M2 bus1=UC103758.1.2.3.4 phases=3 conn=Delta model=3 kv=0.38 kw=0.1237885 pf=0.92 daily=CO5_DU status=variable vmaxpu=1.5 vminpu=0.92
New Load.BT_103759_M1 bus1=UC103759.1.2.3.4 phases=3 conn=Delta model=2 kv=0.38 kw=0 pf=0.92 daily=CO7_DU status=variable vmaxpu=1.5 vminpu=0.92
New Load.BT_103759_M2 bus1=UC103759.1.2.3.4 phases=3 conn=Delta model=3 kv=0.38 kw=0 pf=0.92 daily=CO7_DU status=variable vmaxpu=1.5 vminpu=0.92
New Load.BT_103760_M1 bus1=UC103760.2.4 phases=1 conn=Wye model=2 kv=0.219393102 kw=0.1301915 pf=0.92 daily=RE4_DU status=variable vmaxpu=1.5 vminpu=0.92
New Load.BT_103760_M2 bus1=UC103760.2.4 phases=1 conn=Wye model=3 kv=0.219393102 kw=0.1301915 pf=0.92 daily=RE4_DU status=variable vmaxpu=1.5 vminpu=0.92
New Load.BT_103776_M1 bus1=UC103776.2.4 phases=1 conn=Wye model=2 kv=0.219393102 kw=0.428935 pf=0.92 daily=RE8_DU status=variable vmaxpu=1.5 vminpu=0.92
New Load.BT_103776_M2 bus1=UC103776.2.4 phases=1 conn=Wye model=3 kv=0.219393102 kw=0.428935 pf=0.92 daily=RE8_DU status=variable vmaxpu=1.5 vminpu=0.92
New Load.BT_103777_M1 bus1=UC103777.2.4 phases=1 conn=Wye model=2 kv=0.219393102 kw=0.092396 pf=0.92 daily=RE2_DU status=variable vmaxpu=1.5 vminpu=0.92
New Load.BT_103777_M2 bus1=UC103777.2.4 phases=1 conn=Wye model=3 kv=0.219393102 kw=0.092396 pf=0.92 daily=RE2_DU status=variable vmaxpu=1.5 vminpu=0.92
New Load.BT_103778_M1 bus1=UC103778.3.4 phases=1 conn=Wye model=2 kv=0.219393102 kw=0.9294395 pf=0.92 daily=RE1_DU status=variable vmaxpu=1.5 vminpu=0.92
New Load.BT_103778_M2 bus1=UC103778.3.4 phases=1 conn=Wye model=3 kv=0.219393102 kw=0.9294395 pf=0.92 daily=RE1_DU status=variable vmaxpu=1.5 vminpu=0.92
New Load.BT_103794_M1 bus1=UC103794.3.4 phases=1 conn=Wye model=2 kv=0.219393102 kw=0.816917 pf=0.92 daily=RE2_DU status=variable vmaxpu=1.5 vminpu=0.92
New Load.BT_103794_M2 bus1=UC103794.3.4 phases=1 conn=Wye model=3 kv=0.219393102 kw=0.816917 pf=0.92 daily=RE2_DU status=variable vmaxpu=1.5 vminpu=0.92
New Load.BT_103795_M1 bus1=UC103795.2.4 phases=1 conn=Wye model=2 kv=0.219393102 kw=0.1127775 pf=0.92 daily=RE4_DU status=variable vmaxpu=1.5 vminpu=0.92
New Load.BT_103795_M2 bus1=UC103795.2.4 phases=1 conn=Wye model=3 kv=0.219393102 kw=0.1127775 pf=0.92 daily=RE4_DU status=variable vmaxpu=1.5 vminpu=0.92
New Load.BT_103797_M1 bus1=UC103797.1.4 phases=1 conn=Wye model=2 kv=0.219393102 kw=0.181412 pf=0.92 daily=RE2_DU status=variable vmaxpu=1.5 vminpu=0.92
New Load.BT_103797_M2 bus1=UC103797.1.4 phases=1 conn=Wye model=3 kv=0.219393102 kw=0.181412 pf=0.92 daily=RE2_DU status=variable vmaxpu=1.5 vminpu=0.92
New Load.BT_103799_M1 bus1=UC103799.1.4 phases=1 conn=Wye model=2 kv=0.219393102 kw=0.3961215 pf=0.92 daily=RE7_DU status=variable vmaxpu=1.5 vminpu=0.92
New Load.BT_103799_M2 bus1=UC103799.1.4 phases=1 conn=Wye model=3 kv=0.219393102 kw=0.3961215 pf=0.92 daily=RE7_DU status=variable vmaxpu=1.5 vminpu=0.92
New Load.BT_103800_M1 bus1=UC103800.3.4 phases=1 conn=Wye model=2 kv=0.219393102 kw=0.1289425 pf=0.92 daily=RE7_DU status=variable vmaxpu=1.5 vminpu=0.92
New Load.BT_103800_M2 bus1=UC103800.3.4 phases=1 conn=Wye model=3 kv=0.219393102 kw=0.1289425 pf=0.92 daily=RE7_DU status=variable vmaxpu=1.5 vminpu=0.92
New Load.BT_103817_M1 bus1=UC103817.1.2.3.4 phases=3 conn=Delta model=2 kv=0.38 kw=0.4395265 pf=0.92 daily=RE5_DU status=variable vmaxpu=1.5 vminpu=0.92
New Load.BT_103817_M2 bus1=UC103817.1.2.3.4 phases=3 conn=Delta model=3 kv=0.38 kw=0.4395265 pf=0.92 daily=RE5_DU status=variable vmaxpu=1.5 vminpu=0.92
New Load.BT_103877_M1 bus1=UC103877.1.2.3.4 phases=3 conn=Delta model=2 kv=0.38 kw=0.7681685 pf=0.92 daily=RE8_DU status=variable vmaxpu=1.5 vminpu=0.92
New Load.BT_103877_M2 bus1=UC103877.1.2.3.4 phases=3 conn=Delta model=3 kv=0.38 kw=0.7681685 pf=0.92 daily=RE8_DU status=variable vmaxpu=1.5 vminpu=0.92
New Load.BT_117176_M1 bus1=UC117176.3.4 phases=1 conn=Wye model=2 kv=0.219393102 kw=0.3115075 pf=0.92 daily=RE8_DU status=variable vmaxpu=1.5 vminpu=0.92
New Load.BT_117176_M2 bus1=UC117176.3.4 phases=1 conn=Wye model=3 kv=0.219393102 kw=0.3115075 pf=0.92 daily=RE8_DU status=variable vmaxpu=1.5 vminpu=0.92
New Load.BT_119444_M1 bus1=UC119444.1.2.3.4 phases=3 conn=Delta model=2 kv=0.38 kw=0.098364 pf=0.92 daily=RE5_DU status=variable vmaxpu=1.5 vminpu=0.92
New Load.BT_119444_M2 bus1=UC119444.1.2.3.4 phases=3 conn=Delta model=3 kv=0.38 kw=0.098364 pf=0.92 daily=RE5_DU status=variable vmaxpu=1.5 vminpu=0.92
New Load.BT_121271_M1 bus1=UC121271.2.4 phases=1 conn=Wye model=2 kv=0.219393102 kw=0.3573485 pf=0.92 daily=RE5_DU status=variable vmaxpu=1.5 vminpu=0.92
New Load.BT_121271_M2 bus1=UC121271.2.4 phases=1 conn=Wye model=3 kv=0.219393102 kw=0.3573485 pf=0.92 daily=RE5_DU status=variable vmaxpu=1.5 vminpu=0.92
New Load.BT_121834_M1 bus1=UC121834.1.2.3.4 phases=3 conn=Delta model=2 kv=0.38 kw=1.336736 pf=0.92 daily=CO2_DU status=variable vmaxpu=1.5 vminpu=0.92
New Load.BT_121834_M2 bus1=UC121834.1.2.3.4 phases=3 conn=Delta model=3 kv=0.38 kw=1.336736 pf=0.92 daily=CO2_DU status=variable vmaxpu=1.5 vminpu=0.92
New Load.BT_122291_M1 bus1=UC122291.3.1.4 phases=1 conn=Delta model=2 kv=0.38 kw=1.1501775 pf=0.92 daily=CO4_DU status=variable vmaxpu=1.5 vminpu=0.92
New Load.BT_122291_M2 bus1=UC122291.3.1.4 phases=1 conn=Delta model=3 kv=0.38 kw=1.1501775 pf=0.92 daily=CO4_DU status=variable vmaxpu=1.5 vminpu=0.92
New Load.BT_123107_M1 bus1=UC123107.1.2.4 phases=1 conn=Delta model=2 kv=0.38 kw=0.1661155 pf=0.92 daily=RE7_DU status=variable vmaxpu=1.5 vminpu=0.92
New Load.BT_123107_M2 bus1=UC123107.1.2.4 phases=1 conn=Delta model=3 kv=0.38 kw=0.1661155 pf=0.92 daily=RE7_DU status=variable vmaxpu=1.5 vminpu=0.92
New Load.BT_123518_M1 bus1=UC123518.1.4 phases=1 conn=Wye model=2 kv=0.219393102 kw=0.194238 pf=0.92 daily=RE5_DU status=variable vmaxpu=1.5 vminpu=0.92
New Load.BT_123518_M2 bus1=UC123518.1.4 phases=1 conn=Wye model=3 kv=0.219393102 kw=0.194238 pf=0.92 daily=RE5_DU status=variable vmaxpu=1.5 vminpu=0.92
New Load.BT_124079_M1 bus1=UC124079.1.4 phases=1 conn=Wye model=2 kv=0.219393102 kw=0.173917 pf=0.92 daily=RE1_DU status=variable vmaxpu=1.5 vminpu=0.92
New Load.BT_124079_M2 bus1=UC124079.1.4 phases=1 conn=Wye model=3 kv=0.219393102 kw=0.173917 pf=0.92 daily=RE1_DU status=variable vmaxpu=1.5 vminpu=0.92
New Load.BT_124795_M1 bus1=UC124795.3.4 phases=1 conn=Wye model=2 kv=0.219393102 kw=0.2451075 pf=0.92 daily=RE7_DU status=variable vmaxpu=1.5 vminpu=0.92
New Load.BT_124795_M2 bus1=UC124795.3.4 phases=1 conn=Wye model=3 kv=0.219393102 kw=0.2451075 pf=0.92 daily=RE7_DU status=variable vmaxpu=1.5 vminpu=0.92
New Load.BT_125063_M1 bus1=UC125063.2.4 phases=1 conn=Wye model=2 kv=0.219393102 kw=0.263544 pf=0.92 daily=RE6_DU status=variable vmaxpu=1.5 vminpu=0.92
New Load.BT_125063_M2 bus1=UC125063.2.4 phases=1 conn=Wye model=3 kv=0.219393102 kw=0.263544 pf=0.92 daily=RE6_DU status=variable vmaxpu=1.5 vminpu=0.92
New Load.BT_125752_M1 bus1=UC125752.1.2.3.4 phases=3 conn=Delta model=2 kv=0.38 kw=0.3331525 pf=0.92 daily=RE1_DU status=variable vmaxpu=1.5 vminpu=0.92
New Load.BT_125752_M2 bus1=UC125752.1.2.3.4 phases=3 conn=Delta model=3 kv=0.38 kw=0.3331525 pf=0.92 daily=RE1_DU status=variable vmaxpu=1.5 vminpu=0.92
New Load.BT_125761_M1 bus1=UC125761.1.4 phases=1 conn=Wye model=2 kv=0.219393102 kw=0.3781365 pf=0.92 daily=RE4_DU status=variable vmaxpu=1.5 vminpu=0.92
New Load.BT_125761_M2 bus1=UC125761.1.4 phases=1 conn=Wye model=3 kv=0.219393102 kw=0.3781365 pf=0.92 daily=RE4_DU status=variable vmaxpu=1.5 vminpu=0.92
New Load.BT_126102_M1 bus1=UC126102.1.2.3.4 phases=3 conn=Delta model=2 kv=0.38 kw=0.333531 pf=0.92 daily=RE6_DU status=variable vmaxpu=1.5 vminpu=0.92
New Load.BT_126102_M2 bus1=UC126102.1.2.3.4 phases=3 conn=Delta model=3 kv=0.38 kw=0.333531 pf=0.92 daily=RE6_DU status=variable vmaxpu=1.5 vminpu=0.92
New Load.BT_126504_M1 bus1=UC126504.1.2.3.4 phases=3 conn=Delta model=2 kv=0.38 kw=0.687839 pf=0.92 daily=RE6_DU status=variable vmaxpu=1.5 vminpu=0.92
New Load.BT_126504_M2 bus1=UC126504.1.2.3.4 phases=3 conn=Delta model=3 kv=0.38 kw=0.687839 pf=0.92 daily=RE6_DU status=variable vmaxpu=1.5 vminpu=0.92
New Load.BT_126659_M1 bus1=UC126659.1.2.3.4 phases=3 conn=Delta model=2 kv=0.38 kw=1.3194235 pf=0.92 daily=RE8_DU status=variable vmaxpu=1.5 vminpu=0.92
New Load.BT_126659_M2 bus1=UC126659.1.2.3.4 phases=3 conn=Delta model=3 kv=0.38 kw=1.3194235 pf=0.92 daily=RE8_DU status=variable vmaxpu=1.5 vminpu=0.92
New Load.BT_126845_M1 bus1=UC126845.3.4 phases=1 conn=Wye model=2 kv=0.219393102 kw=0.3980385 pf=0.92 daily=RE4_DU status=variable vmaxpu=1.5 vminpu=0.92
New Load.BT_126845_M2 bus1=UC126845.3.4 phases=1 conn=Wye model=3 kv=0.219393102 kw=0.3980385 pf=0.92 daily=RE4_DU status=variable vmaxpu=1.5 vminpu=0.92
New Load.BT_127723_M1 bus1=UC127723.1.4 phases=1 conn=Wye model=2 kv=0.219393102 kw=0.141801 pf=0.92 daily=RE4_DU status=variable vmaxpu=1.5 vminpu=0.92
New Load.BT_127723_M2 bus1=UC127723.1.4 phases=1 conn=Wye model=3 kv=0.219393102 kw=0.141801 pf=0.92 daily=RE4_DU status=variable vmaxpu=1.5 vminpu=0.92
New Load.BT_128275_M1 bus1=UC128275.1.2.3.4 phases=3 conn=Delta model=2 kv=0.38 kw=4.030806 pf=0.92 daily=CO2_DU status=variable vmaxpu=1.5 vminpu=0.92
New Load.BT_128275_M2 bus1=UC128275.1.2.3.4 phases=3 conn=Delta model=3 kv=0.38 kw=4.030806 pf=0.92 daily=CO2_DU status=variable vmaxpu=1.5 vminpu=0.92
New Load.BT_128452_M1 bus1=UC128452.1.2.4 phases=1 conn=Delta model=2 kv=0.38 kw=0.419149 pf=0.92 daily=RE8_DU status=variable vmaxpu=1.5 vminpu=0.92
New Load.BT_128452_M2 bus1=UC128452.1.2.4 phases=1 conn=Delta model=3 kv=0.38 kw=0.419149 pf=0.92 daily=RE8_DU status=variable vmaxpu=1.5 vminpu=0.92
New Load.BT_129044_M1 bus1=UC129044.1.4 phases=1 conn=Wye model=2 kv=0.219393102 kw=0.367331 pf=0.92 daily=RE2_DU status=variable vmaxpu=1.5 vminpu=0.92
New Load.BT_129044_M2 bus1=UC129044.1.4 phases=1 conn=Wye model=3 kv=0.219393102 kw=0.367331 pf=0.92 daily=RE2_DU status=variable vmaxpu=1.5 vminpu=0.92
New Load.BT_129111_M1 bus1=UC129111.1.4 phases=1 conn=Wye model=2 kv=0.219393102 kw=0.103898 pf=0.92 daily=RE1_DU status=variable vmaxpu=1.5 vminpu=0.92
New Load.BT_129111_M2 bus1=UC129111.1.4 phases=1 conn=Wye model=3 kv=0.219393102 kw=0.103898 pf=0.92 daily=RE1_DU status=variable vmaxpu=1.5 vminpu=0.92
New Load.BT_129329_M1 bus1=UC129329.3.4 phases=1 conn=Wye model=2 kv=0.219393102 kw=0.1558475 pf=0.92 daily=RE1_DU status=variable vmaxpu=1.5 vminpu=0.92
New Load.BT_129329_M2 bus1=UC129329.3.4 phases=1 conn=Wye model=3 kv=0.219393102 kw=0.1558475 pf=0.92 daily=RE1_DU status=variable vmaxpu=1.5 vminpu=0.92
New Load.BT_130128_M1 bus1=UC130128.2.4 phases=1 conn=Wye model=2 kv=0.219393102 kw=0.180479 pf=0.92 daily=RE3_DU status=variable vmaxpu=1.5 vminpu=0.92
New Load.BT_130128_M2 bus1=UC130128.2.4 phases=1 conn=Wye model=3 kv=0.219393102 kw=0.180479 pf=0.92 daily=RE3_DU status=variable vmaxpu=1.5 vminpu=0.92
New Load.BT_130470_M1 bus1=UC130470.1.2.3.4 phases=3 conn=Delta model=2 kv=0.38 kw=0.701001 pf=0.92 daily=RE5_DU status=variable vmaxpu=1.5 vminpu=0.92
New Load.BT_130470_M2 bus1=UC130470.1.2.3.4 phases=3 conn=Delta model=3 kv=0.38 kw=0.701001 pf=0.92 daily=RE5_DU status=variable vmaxpu=1.5 vminpu=0.92
New Load.BT_130510_M1 bus1=UC130510.1.2.3.4 phases=3 conn=Delta model=2 kv=0.38 kw=0.145118 pf=0.92 daily=RE4_DU status=variable vmaxpu=1.5 vminpu=0.92
New Load.BT_130510_M2 bus1=UC130510.1.2.3.4 phases=3 conn=Delta model=3 kv=0.38 kw=0.145118 pf=0.92 daily=RE4_DU status=variable vmaxpu=1.5 vminpu=0.92
New Load.BT_130583_M1 bus1=UC130583.3.4 phases=1 conn=Wye model=2 kv=0.219393102 kw=0.469305 pf=0.92 daily=RE7_DU status=variable vmaxpu=1.5 vminpu=0.92
New Load.BT_130583_M2 bus1=UC130583.3.4 phases=1 conn=Wye model=3 kv=0.219393102 kw=0.469305 pf=0.92 daily=RE7_DU status=variable vmaxpu=1.5 vminpu=0.92
New Load.BT_131282_M1 bus1=UC131282.1.4 phases=1 conn=Wye model=2 kv=0.219393102 kw=0.66542 pf=0.92 daily=RE8_DU status=variable vmaxpu=1.5 vminpu=0.92
New Load.BT_131282_M2 bus1=UC131282.1.4 phases=1 conn=Wye model=3 kv=0.219393102 kw=0.66542 pf=0.92 daily=RE8_DU status=variable vmaxpu=1.5 vminpu=0.92
New Load.BT_131291_M1 bus1=UC131291.1.4 phases=1 conn=Wye model=2 kv=0.219393102 kw=0.3136445 pf=0.92 daily=RE7_DU status=variable vmaxpu=1.5 vminpu=0.92
New Load.BT_131291_M2 bus1=UC131291.1.4 phases=1 conn=Wye model=3 kv=0.219393102 kw=0.3136445 pf=0.92 daily=RE7_DU status=variable vmaxpu=1.5 vminpu=0.92
New Load.BT_131327_M1 bus1=UC131327.1.2.3.4 phases=3 conn=Delta model=2 kv=0.38 kw=0.3180315 pf=0.92 daily=RE8_DU status=variable vmaxpu=1.5 vminpu=0.92
New Load.BT_131327_M2 bus1=UC131327.1.2.3.4 phases=3 conn=Delta model=3 kv=0.38 kw=0.3180315 pf=0.92 daily=RE8_DU status=variable vmaxpu=1.5 vminpu=0.92
New Load.BT_131526_M1 bus1=UC131526.1.2.3.4 phases=3 conn=Delta model=2 kv=0.38 kw=1.322398 pf=0.92 daily=CO5_DU status=variable vmaxpu=1.5 vminpu=0.92
New Load.BT_131526_M2 bus1=UC131526.1.2.3.4 phases=3 conn=Delta model=3 kv=0.38 kw=1.322398 pf=0.92 daily=CO5_DU status=variable vmaxpu=1.5 vminpu=0.92
New Load.BT_131749_M1 bus1=UC131749.1.2.3.4 phases=3 conn=Delta model=2 kv=0.38 kw=0.115003 pf=0.92 daily=RE7_DU status=variable vmaxpu=1.5 vminpu=0.92
New Load.BT_131749_M2 bus1=UC131749.1.2.3.4 phases=3 conn=Delta model=3 kv=0.38 kw=0.115003 pf=0.92 daily=RE7_DU status=variable vmaxpu=1.5 vminpu=0.92
New Load.BT_131892_M1 bus1=UC131892.1.2.3.4 phases=3 conn=Delta model=2 kv=0.38 kw=0.520459 pf=0.92 daily=RE5_DU status=variable vmaxpu=1.5 vminpu=0.92
New Load.BT_131892_M2 bus1=UC131892.1.2.3.4 phases=3 conn=Delta model=3 kv=0.38 kw=0.520459 pf=0.92 daily=RE5_DU status=variable vmaxpu=1.5 vminpu=0.92
New Load.BT_133203_M1 bus1=UC133203.1.2.3.4 phases=3 conn=Delta model=2 kv=0.38 kw=0.1059345 pf=0.92 daily=CO5_DU status=variable vmaxpu=1.5 vminpu=0.92
New Load.BT_133203_M2 bus1=UC133203.1.2.3.4 phases=3 conn=Delta model=3 kv=0.38 kw=0.1059345 pf=0.92 daily=CO5_DU status=variable vmaxpu=1.5 vminpu=0.92
New Load.BT_133310_M1 bus1=UC133310.1.2.3.4 phases=3 conn=Delta model=2 kv=0.38 kw=0.091124 pf=0.92 daily=CO3_DU status=variable vmaxpu=1.5 vminpu=0.92
New Load.BT_133310_M2 bus1=UC133310.1.2.3.4 phases=3 conn=Delta model=3 kv=0.38 kw=0.091124 pf=0.92 daily=CO3_DU status=variable vmaxpu=1.5 vminpu=0.92
New Load.BT_133475_M1 bus1=UC133475.1.2.3.4 phases=3 conn=Delta model=2 kv=0.38 kw=1.1869195 pf=0.92 daily=PP4_DU status=variable vmaxpu=1.5 vminpu=0.92
New Load.BT_133475_M2 bus1=UC133475.1.2.3.4 phases=3 conn=Delta model=3 kv=0.38 kw=1.1869195 pf=0.92 daily=PP4_DU status=variable vmaxpu=1.5 vminpu=0.92
New Load.BT_133476_M1 bus1=UC133476.3.4 phases=1 conn=Wye model=2 kv=0.219393102 kw=0.0862415 pf=0.92 daily=RE4_DU status=variable vmaxpu=1.5 vminpu=0.92
New Load.BT_133476_M2 bus1=UC133476.3.4 phases=1 conn=Wye model=3 kv=0.219393102 kw=0.0862415 pf=0.92 daily=RE4_DU status=variable vmaxpu=1.5 vminpu=0.92
New Load.BT_133545_M1 bus1=UC133545.1.4 phases=1 conn=Wye model=2 kv=0.219393102 kw=0.4697205 pf=0.92 daily=CO6_DU status=variable vmaxpu=1.5 vminpu=0.92
New Load.BT_133545_M2 bus1=UC133545.1.4 phases=1 conn=Wye model=3 kv=0.219393102 kw=0.4697205 pf=0.92 daily=CO6_DU status=variable vmaxpu=1.5 vminpu=0.92
New Load.BT_133756_M1 bus1=UC133756.1.2.3.4 phases=3 conn=Delta model=2 kv=0.38 kw=0.693307 pf=0.92 daily=RE6_DU status=variable vmaxpu=1.5 vminpu=0.92
New Load.BT_133756_M2 bus1=UC133756.1.2.3.4 phases=3 conn=Delta model=3 kv=0.38 kw=0.693307 pf=0.92 daily=RE6_DU status=variable vmaxpu=1.5 vminpu=0.92
New Load.BT_134407_M1 bus1=UC134407.2.4 phases=1 conn=Wye model=2 kv=0.219393102 kw=0.111119 pf=0.92 daily=RE4_DU status=variable vmaxpu=1.5 vminpu=0.92
New Load.BT_134407_M2 bus1=UC134407.2.4 phases=1 conn=Wye model=3 kv=0.219393102 kw=0.111119 pf=0.92 daily=RE4_DU status=variable vmaxpu=1.5 vminpu=0.92
New Load.BT_134691_M1 bus1=UC134691.1.2.3.4 phases=3 conn=Delta model=2 kv=0.38 kw=0.6003045 pf=0.92 daily=CO7_DU status=variable vmaxpu=1.5 vminpu=0.92
New Load.BT_134691_M2 bus1=UC134691.1.2.3.4 phases=3 conn=Delta model=3 kv=0.38 kw=0.6003045 pf=0.92 daily=CO7_DU status=variable vmaxpu=1.5 vminpu=0.92
New Load.BT_134916_M1 bus1=UC134916.2.4 phases=1 conn=Wye model=2 kv=0.219393102 kw=0 pf=0.92 daily=CO1_DU status=variable vmaxpu=1.5 vminpu=0.92
New Load.BT_134916_M2 bus1=UC134916.2.4 phases=1 conn=Wye model=3 kv=0.219393102 kw=0 pf=0.92 daily=CO1_DU status=variable vmaxpu=1.5 vminpu=0.92
New Load.BT_135378_M1 bus1=UC135378.1.2.3.4 phases=3 conn=Delta model=2 kv=0.38 kw=0.2645295 pf=0.92 daily=RE4_DU status=variable vmaxpu=1.5 vminpu=0.92
New Load.BT_135378_M2 bus1=UC135378.1.2.3.4 phases=3 conn=Delta model=3 kv=0.38 kw=0.2645295 pf=0.92 daily=RE4_DU status=variable vmaxpu=1.5 vminpu=0.92
New Load.BT_135895_M1 bus1=UC135895.1.2.3.4 phases=3 conn=Delta model=2 kv=0.38 kw=0.445244 pf=0.92 daily=RE8_DU status=variable vmaxpu=1.5 vminpu=0.92
New Load.BT_135895_M2 bus1=UC135895.1.2.3.4 phases=3 conn=Delta model=3 kv=0.38 kw=0.445244 pf=0.92 daily=RE8_DU status=variable vmaxpu=1.5 vminpu=0.92
New Load.BT_136039_M1 bus1=UC136039.3.4 phases=1 conn=Wye model=2 kv=0.219393102 kw=0.209614 pf=0.92 daily=CO1_DU status=variable vmaxpu=1.5 vminpu=0.92
New Load.BT_136039_M2 bus1=UC136039.3.4 phases=1 conn=Wye model=3 kv=0.219393102 kw=0.209614 pf=0.92 daily=CO1_DU status=variable vmaxpu=1.5 vminpu=0.92
New Load.BT_138278_M1 bus1=UC138278.1.2.3.4 phases=3 conn=Delta model=2 kv=0.38 kw=0.314372 pf=0.92 daily=RE2_DU status=variable vmaxpu=1.5 vminpu=0.92
New Load.BT_138278_M2 bus1=UC138278.1.2.3.4 phases=3 conn=Delta model=3 kv=0.38 kw=0.314372 pf=0.92 daily=RE2_DU status=variable vmaxpu=1.5 vminpu=0.92
New Load.BT_138779_M1 bus1=UC138779.1.2.3.4 phases=3 conn=Delta model=2 kv=0.38 kw=0 pf=0.92 daily=CO1_DU status=variable vmaxpu=1.5 vminpu=0.92
New Load.BT_138779_M2 bus1=UC138779.1.2.3.4 phases=3 conn=Delta model=3 kv=0.38 kw=0 pf=0.92 daily=CO1_DU status=variable vmaxpu=1.5 vminpu=0.92
New Load.BT_138771_M1 bus1=UC138771.2.3.4 phases=1 conn=Delta model=2 kv=0.38 kw=0 pf=0.92 daily=RE4_DU status=variable vmaxpu=1.5 vminpu=0.92
New Load.BT_138771_M2 bus1=UC138771.2.3.4 phases=1 conn=Delta model=3 kv=0.38 kw=0 pf=0.92 daily=RE4_DU status=variable vmaxpu=1.5 vminpu=0.92
New Load.BT_IP4549_M1 bus1=BT661681.1.4 phases=1 conn=Wye model=2 kv=0.219393102 kw=0.0350215 pf=0.92 daily=IP1_DU status=variable vmaxpu=1.5 vminpu=0.92
New Load.BT_IP4549_M2 bus1=BT661681.1.4 phases=1 conn=Wye model=3 kv=0.219393102 kw=0.0350215 pf=0.92 daily=IP1_DU status=variable vmaxpu=1.5 vminpu=0.92
New Load.BT_IP4550_M1 bus1=BT376081.1.4 phases=1 conn=Wye model=2 kv=0.219393102 kw=0.0350215 pf=0.92 daily=IP1_DU status=variable vmaxpu=1.5 vminpu=0.92
New Load.BT_IP4550_M2 bus1=BT376081.1.4 phases=1 conn=Wye model=3 kv=0.219393102 kw=0.0350215 pf=0.92 daily=IP1_DU status=variable vmaxpu=1.5 vminpu=0.92
New Load.BT_IP4551_M1 bus1=BT585411.1.4 phases=1 conn=Wye model=2 kv=0.219393102 kw=0.0466955 pf=0.92 daily=IP1_DU status=variable vmaxpu=1.5 vminpu=0.92
New Load.BT_IP4551_M2 bus1=BT585411.1.4 phases=1 conn=Wye model=3 kv=0.219393102 kw=0.0466955 pf=0.92 daily=IP1_DU status=variable vmaxpu=1.5 vminpu=0.92
New Load.BT_IP4552_M1 bus1=BT294621.1.4 phases=1 conn=Wye model=2 kv=0.219393102 kw=0.0466955 pf=0.92 daily=IP1_DU status=variable vmaxpu=1.5 vminpu=0.92
New Load.BT_IP4552_M2 bus1=BT294621.1.4 phases=1 conn=Wye model=3 kv=0.219393102 kw=0.0466955 pf=0.92 daily=IP1_DU status=variable vmaxpu=1.5 vminpu=0.92
New Load.BT_IP4582_M1 bus1=BT294681.1.4 phases=1 conn=Wye model=2 kv=0.219393102 kw=0.0466955 pf=0.92 daily=IP1_DU status=variable vmaxpu=1.5 vminpu=0.92
New Load.BT_IP4582_M2 bus1=BT294681.1.4 phases=1 conn=Wye model=3 kv=0.219393102 kw=0.0466955 pf=0.92 daily=IP1_DU status=variable vmaxpu=1.5 vminpu=0.92
New Load.BT_IP4583_M1 bus1=BT562411.1.4 phases=1 conn=Wye model=2 kv=0.219393102 kw=0.204713 pf=0.92 daily=IP1_DU status=variable vmaxpu=1.5 vminpu=0.92
New Load.BT_IP4583_M2 bus1=BT562411.1.4 phases=1 conn=Wye model=3 kv=0.219393102 kw=0.204713 pf=0.92 daily=IP1_DU status=variable vmaxpu=1.5 vminpu=0.92
New Load.BT_IP4584_M1 bus1=BT298291.1.4 phases=1 conn=Wye model=2 kv=0.219393102 kw=0.0466955 pf=0.92 daily=IP1_DU status=variable vmaxpu=1.5 vminpu=0.92
New Load.BT_IP4584_M2 bus1=BT298291.1.4 phases=1 conn=Wye model=3 kv=0.219393102 kw=0.0466955 pf=0.92 daily=IP1_DU status=variable vmaxpu=1.5 vminpu=0.92
New Load.BT_IP4615_M1 bus1=ET1_1211.1.4 phases=1 conn=Wye model=2 kv=0.219393102 kw=0.204713 pf=0.92 daily=IP1_DU status=variable vmaxpu=1.5 vminpu=0.92
New Load.BT_IP4615_M2 bus1=ET1_1211.1.4 phases=1 conn=Wye model=3 kv=0.219393102 kw=0.204713 pf=0.92 daily=IP1_DU status=variable vmaxpu=1.5 vminpu=0.92
New Load.BT_IP4616_M1 bus1=BT661961.1.4 phases=1 conn=Wye model=2 kv=0.219393102 kw=0.204713 pf=0.92 daily=IP1_DU status=variable vmaxpu=1.5 vminpu=0.92
New Load.BT_IP4616_M2 bus1=BT661961.1.4 phases=1 conn=Wye model=3 kv=0.219393102 kw=0.204713 pf=0.92 daily=IP1_DU status=variable vmaxpu=1.5 vminpu=0.92
New Load.BT_IP4617_M1 bus1=BT445251.1.4 phases=1 conn=Wye model=2 kv=0.219393102 kw=0.130187 pf=0.92 daily=IP1_DU status=variable vmaxpu=1.5 vminpu=0.92
New Load.BT_IP4617_M2 bus1=BT445251.1.4 phases=1 conn=Wye model=3 kv=0.219393102 kw=0.130187 pf=0.92 daily=IP1_DU status=variable vmaxpu=1.5 vminpu=0.92
New Load.BT_IP4618_M1 bus1=BT298341.1.4 phases=1 conn=Wye model=2 kv=0.219393102 kw=0.0350215 pf=0.92 daily=IP1_DU status=variable vmaxpu=1.5 vminpu=0.92
New Load.BT_IP4618_M2 bus1=BT298341.1.4 phases=1 conn=Wye model=3 kv=0.219393102 kw=0.0350215 pf=0.92 daily=IP1_DU status=variable vmaxpu=1.5 vminpu=0.92
New Load.BT_IP4619_M1 bus1=BT109671.1.4 phases=1 conn=Wye model=2 kv=0.219393102 kw=0.0233475 pf=0.92 daily=IP1_DU status=variable vmaxpu=1.5 vminpu=0.92
New Load.BT_IP4619_M2 bus1=BT109671.1.4 phases=1 conn=Wye model=3 kv=0.219393102 kw=0.0233475 pf=0.92 daily=IP1_DU status=variable vmaxpu=1.5 vminpu=0.92
New Load.BT_IP4629_M1 bus1=BT242401.1.4 phases=1 conn=Wye model=2 kv=0.219393102 kw=0.0466955 pf=0.92 daily=IP1_DU status=variable vmaxpu=1.5 vminpu=0.92
New Load.BT_IP4629_M2 bus1=BT242401.1.4 phases=1 conn=Wye model=3 kv=0.219393102 kw=0.0466955 pf=0.92 daily=IP1_DU status=variable vmaxpu=1.5 vminpu=0.92
New Load.BT_IP4622_M1 bus1=BT242371.1.4 phases=1 conn=Wye model=2 kv=0.219393102 kw=0.0350215 pf=0.92 daily=IP1_DU status=variable vmaxpu=1.5 vminpu=0.92
New Load.BT_IP4622_M2 bus1=BT242371.1.4 phases=1 conn=Wye model=3 kv=0.219393102 kw=0.0350215 pf=0.92 daily=IP1_DU status=variable vmaxpu=1.5 vminpu=0.92
New Load.BT_IP6472_M1 bus1=BT562421.1.4 phases=1 conn=Wye model=2 kv=0.219393102 kw=0.0466955 pf=0.92 daily=IP1_DU status=variable vmaxpu=1.5 vminpu=0.92
New Load.BT_IP6472_M2 bus1=BT562421.1.4 phases=1 conn=Wye model=3 kv=0.219393102 kw=0.0466955 pf=0.92 daily=IP1_DU status=variable vmaxpu=1.5 vminpu=0.92
New Load.BT_IP6473_M1 bus1=BT562431.1.4 phases=1 conn=Wye model=2 kv=0.219393102 kw=0.130187 pf=0.92 daily=IP1_DU status=variable vmaxpu=1.5 vminpu=0.92
New Load.BT_IP6473_M2 bus1=BT562431.1.4 phases=1 conn=Wye model=3 kv=0.219393102 kw=0.130187 pf=0.92 daily=IP1_DU status=variable vmaxpu=1.5 vminpu=0.92
New Load.BT_IP6507_M1 bus1=BT242381.1.4 phases=1 conn=Wye model=2 kv=0.219393102 kw=0.0466955 pf=0.92 daily=IP1_DU status=variable vmaxpu=1.5 vminpu=0.92
New Load.BT_IP6507_M2 bus1=BT242381.1.4 phases=1 conn=Wye model=3 kv=0.219393102 kw=0.0466955 pf=0.92 daily=IP1_DU status=variable vmaxpu=1.5 vminpu=0.92
New Load.BT_IP6508_M1 bus1=BT242391.1.4 phases=1 conn=Wye model=2 kv=0.219393102 kw=0.0466955 pf=0.92 daily=IP1_DU status=variable vmaxpu=1.5 vminpu=0.92
New Load.BT_IP6508_M2 bus1=BT242391.1.4 phases=1 conn=Wye model=3 kv=0.219393102 kw=0.0466955 pf=0.92 daily=IP1_DU status=variable vmaxpu=1.5 vminpu=0.92
New Load.BT_IP6509_M1 bus1=BT588501.1.4 phases=1 conn=Wye model=2 kv=0.219393102 kw=0.093391 pf=0.92 daily=IP1_DU status=variable vmaxpu=1.5 vminpu=0.92
New Load.BT_IP6509_M2 bus1=BT588501.1.4 phases=1 conn=Wye model=3 kv=0.219393102 kw=0.093391 pf=0.92 daily=IP1_DU status=variable vmaxpu=1.5 vminpu=0.92
New Load.BT_IP6510_M1 bus1=BT588501.1.4 phases=1 conn=Wye model=2 kv=0.219393102 kw=0.070043 pf=0.92 daily=IP1_DU status=variable vmaxpu=1.5 vminpu=0.92
New Load.BT_IP6510_M2 bus1=BT588501.1.4 phases=1 conn=Wye model=3 kv=0.219393102 kw=0.070043 pf=0.92 daily=IP1_DU status=variable vmaxpu=1.5 vminpu=0.92
New Load.BT_IP6505_M1 bus1=BT242411.1.4 phases=1 conn=Wye model=2 kv=0.219393102 kw=0.0466955 pf=0.92 daily=IP1_DU status=variable vmaxpu=1.5 vminpu=0.92
New Load.BT_IP6505_M2 bus1=BT242411.1.4 phases=1 conn=Wye model=3 kv=0.219393102 kw=0.0466955 pf=0.92 daily=IP1_DU status=variable vmaxpu=1.5 vminpu=0.92
New Load.BT_IP7840_M1 bus1=BT588501.1.4 phases=1 conn=Wye model=2 kv=0.219393102 kw=0.0350215 pf=0.92 daily=IP1_DU status=variable vmaxpu=1.5 vminpu=0.92
New Load.BT_IP7840_M2 bus1=BT588501.1.4 phases=1 conn=Wye model=3 kv=0.219393102 kw=0.0350215 pf=0.92 daily=IP1_DU status=variable vmaxpu=1.5 vminpu=0.92
New Load.BT_IP8040_M1 bus1=BT703971.1.4 phases=1 conn=Wye model=2 kv=0.219393102 kw=0.093391 pf=0.92 daily=IP1_DU status=variable vmaxpu=1.5 vminpu=0.92
New Load.BT_IP8040_M2 bus1=BT703971.1.4 phases=1 conn=Wye model=3 kv=0.219393102 kw=0.093391 pf=0.92 daily=IP1_DU status=variable vmaxpu=1.5 vminpu=0.92
New Load.BT_IP5126_M1 bus1=BT583012.1.4 phases=1 conn=Wye model=2 kv=0.219393102 kw=0.0466955 pf=0.92 daily=IP1_DU status=variable vmaxpu=1.5 vminpu=0.92
New Load.BT_IP5126_M2 bus1=BT583012.1.4 phases=1 conn=Wye model=3 kv=0.219393102 kw=0.0466955 pf=0.92 daily=IP1_DU status=variable vmaxpu=1.5 vminpu=0.92
New Load.BT_IP6131_M1 bus1=BT550731.1.4 phases=1 conn=Wye model=2 kv=0.219393102 kw=0.0466955 pf=0.92 daily=IP1_DU status=variable vmaxpu=1.5 vminpu=0.92
New Load.BT_IP6131_M2 bus1=BT550731.1.4 phases=1 conn=Wye model=3 kv=0.219393102 kw=0.0466955 pf=0.92 daily=IP1_DU status=variable vmaxpu=1.5 vminpu=0.92
New Load.BT_IP6133_M1 bus1=BT804491.1.4 phases=1 conn=Wye model=2 kv=0.219393102 kw=0.0233475 pf=0.92 daily=IP1_DU status=variable vmaxpu=1.5 vminpu=0.92
New Load.BT_IP6133_M2 bus1=BT804491.1.4 phases=1 conn=Wye model=3 kv=0.219393102 kw=0.0233475 pf=0.92 daily=IP1_DU status=variable vmaxpu=1.5 vminpu=0.92
New Load.BT_137899_M1 bus1=UC137899.1.4 phases=1 conn=Wye model=2 kv=0.219393102 kw=0.1467405 pf=0.92 daily=RU5_DU status=variable vmaxpu=1.5 vminpu=0.92
New Load.BT_137899_M2 bus1=UC137899.1.4 phases=1 conn=Wye model=3 kv=0.219393102 kw=0.1467405 pf=0.92 daily=RU5_DU status=variable vmaxpu=1.5 vminpu=0.92
New Load.BT_138449_M1 bus1=UC138449.2.4 phases=1 conn=Wye model=2 kv=0.219393102 kw=0 pf=0.92 daily=RU3_DU status=variable vmaxpu=1.5 vminpu=0.92
New Load.BT_138449_M2 bus1=UC138449.2.4 phases=1 conn=Wye model=3 kv=0.219393102 kw=0 pf=0.92 daily=RU3_DU status=variable vmaxpu=1.5 vminpu=0.92
New Load.BT_137557_M1 bus1=UC137557.3.4 phases=1 conn=Wye model=2 kv=0.219393102 kw=0.1445675 pf=0.92 daily=RU4_DU status=variable vmaxpu=1.5 vminpu=0.92
New Load.BT_137557_M2 bus1=UC137557.3.4 phases=1 conn=Wye model=3 kv=0.219393102 kw=0.1445675 pf=0.92 daily=RU4_DU status=variable vmaxpu=1.5 vminpu=0.92
New Load.BT_137560_M1 bus1=UC137560.1.2.4 phases=1 conn=Delta model=2 kv=0.38 kw=0.1652375 pf=0.92 daily=RU5_DU status=variable vmaxpu=1.5 vminpu=0.92
New Load.BT_137560_M2 bus1=UC137560.1.2.4 phases=1 conn=Delta model=3 kv=0.38 kw=0.1652375 pf=0.92 daily=RU5_DU status=variable vmaxpu=1.5 vminpu=0.92
New Load.BT_135894_M1 bus1=UC135894.1.2.3.4 phases=3 conn=Delta model=2 kv=0.38 kw=0.2720225 pf=0.92 daily=RU6_DU status=variable vmaxpu=1.5 vminpu=0.92
New Load.BT_135894_M2 bus1=UC135894.1.2.3.4 phases=3 conn=Delta model=3 kv=0.38 kw=0.2720225 pf=0.92 daily=RU6_DU status=variable vmaxpu=1.5 vminpu=0.92
New Load.BT_134918_M1 bus1=UC134918.2.4 phases=1 conn=Wye model=2 kv=0.219393102 kw=0.313265 pf=0.92 daily=RU2_DU status=variable vmaxpu=1.5 vminpu=0.92
New Load.BT_134918_M2 bus1=UC134918.2.4 phases=1 conn=Wye model=3 kv=0.219393102 kw=0.313265 pf=0.92 daily=RU2_DU status=variable vmaxpu=1.5 vminpu=0.92
New Load.BT_130892_M1 bus1=UC130892.1.2.3.4 phases=3 conn=Delta model=2 kv=0.38 kw=0.0227465 pf=0.92 daily=RU3_DU status=variable vmaxpu=1.5 vminpu=0.92
New Load.BT_130892_M2 bus1=UC130892.1.2.3.4 phases=3 conn=Delta model=3 kv=0.38 kw=0.0227465 pf=0.92 daily=RU3_DU status=variable vmaxpu=1.5 vminpu=0.92
New Load.BT_128288_M1 bus1=UC128288.1.4 phases=1 conn=Wye model=2 kv=0.219393102 kw=0.096341 pf=0.92 daily=RU6_DU status=variable vmaxpu=1.5 vminpu=0.92
New Load.BT_128288_M2 bus1=UC128288.1.4 phases=1 conn=Wye model=3 kv=0.219393102 kw=0.096341 pf=0.92 daily=RU6_DU status=variable vmaxpu=1.5 vminpu=0.92
...
